reduced_networks/ieee123/78pct/dss/Branches.dss
! Radial Kron-equivalent series elements
new Reactor.kr_2_3 phases=3 bus1=150r.1.2.3 bus2=149.1.2.3 rmatrix=[1e-06 | 0 1e-06 | 0 0 1e-06] xmatrix=[-0 | -0 -0 | -0 -0 -0]
new Reactor.kr_3_4 phases=3 bus1=149.1.2.3 bus2=1.1.2.3 rmatrix=[0.0346666668 | 0.01181818199999999 0.03534848480000002 | 0.01162878799999999 0.01196969679999999 0.03496212119999999] xmatrix=[0.08166666680000007 | 0.03800757560000002 0.07940909080000001 | 0.0291590908 0.03209090919999998 0.08068939400000003]
new Reactor.kr_4_5 phases=3 bus1=1.1.2.3 bus2=7.1.2.3 rmatrix=[0.02600000010000001 | 0.008863636500000008 0.0265113636 | 0.008721591000000001 0.008977272599999996 0.02622159090000002] xmatrix=[0.06125000009999999 | 0.02850568169999999 0.05955681809999999 | 0.02186931809999998 0.02406818189999998 0.06051704550000001]
new Reactor.kr_5_6 phases=3 bus1=7.1.2.3 bus2=8.1.2.3 rmatrix=[0.01733333339999999 | 0.005909090999999997 0.01767424239999999 | 0.005814393999999993 0.005984848399999993 0.01748106059999999] xmatrix=[0.04083333340000001 | 0.01900378780000001 0.03970454539999999 | 0.0145795454 0.01604545459999998 0.04034469700000001]
new Reactor.kr_6_7 phases=1 bus1=8.1 bus2=9.1 rmatrix=[0.05664204540000001] xmatrix=[0.05742187492500001]
new Reactor.kr_6_8 phases=3 bus1=8.1.2.3 bus2=13.1.2.3 rmatrix=[0.02600000010000001 | 0.008863636500000008 0.0265113636 | 0.008721591000000001 0.008977272599999996 0.02622159090000002] xmatrix=[0.06125000009999999 | 0.02850568169999999 0.05955681809999999 | 0.02186931809999998 0.02406818189999998 0.06051704550000001]
new Reactor.kr_8_10 phases=3 bus1=13.1.2.3 bus2=18.1.2.3 rmatrix=[0.07290624989999997 | 0.02468749799999996 0.072109374975 | 0.02437500037499998 0.02398437524999995 0.07150000027499996] xmatrix=[0.163781249775 | 0.06618750022499997 0.1664218751250001 | 0.07839062467499995 0.06014062477499999 0.168437500275]
new Reactor.kr_8_25 phases=3 bus1=13.1.2.3 bus2=152.1.2.3 rmatrix=[1e-06 | 0 1e-06 | 0 0 1e-06] xmatrix=[-0 | -0 -0 | -0 -0 -0]
new Reactor.kr_10_11 phases=3 bus1=18.1.2.3 bus2=25.1.2.3 rmatrix=[0.07290624636565485 | 0.02468749539522364 0.07210936936192525 | 0.0243749977355812 0.02398437218539365 0.07149999468016792] xmatrix=[0.1637812462029998 | 0.0661874973577108 0.166421869793689 | 0.07839062141107722 0.06014062164912727 0.1684374947932321]
new Reactor.kr_10_24 phases=3 bus1=18.1.2.3 bus2=135.1.2.3 rmatrix=[1e-06 | 0 1e-06 | 0 0 1e-06] xmatrix=[-0 | -0 -0 | -0 -0 -0]
new Reactor.kr_13_24 phases=3 bus1=40.1.2.3 bus2=135.1.2.3 rmatrix=[0.05444365101816737 | 0.0186079516087278 0.05523200248414917 | 0.01816997925560621 0.01856060382493886 0.05435132402646037] xmatrix=[0.1266879692961423 | 0.05383995885991659 0.1240766996830483 | 0.04556107708602389 0.05568891767704107 0.1269933693878727]
new Reactor.kr_14_15 phases=3 bus1=52.1.2.3 bus2=57.1.2.3 rmatrix=[0.05875851929185936 | 0.01977746082276199 0.05905397378963627 | 0.01992187323335614 0.02006628614669647 0.05933664411125836] xmatrix=[0.1369573831273437 | 0.05639535773444888 0.1359782163407277 | 0.05177130494780455 0.05933049027742318 0.1350430837216121]
new Reactor.kr_14_25 phases=3 bus1=52.1.2.3 bus2=152.1.2.3 rmatrix=[0.0346666668 | 0.01181818199999999 0.03534848480000002 | 0.01162878799999999 0.01196969679999999 0.03496212119999999] xmatrix=[0.08166666680000007 | 0.03800757560000002 0.07940909080000001 | 0.0291590908 0.03209090919999998 0.08068939400000003]
new Reactor.kr_15_16 phases=3 bus1=57.1.2.3 bus2=60.1.2.3 rmatrix=[0.06555397724999996 | 0.02180397749999999 0.06500000024999995 | 0.02244318149999996 0.02215909124999997 0.066278409] xmatrix=[0.15129261375 | 0.05467329525000002 0.15312500025 | 0.06017045475000001 0.07126420425000002 0.1488920452500001]
new Reactor.kr_16_17 phases=3 bus1=60.1.2.3 bus2=61.1.2.3 rmatrix=[0.04860416660000002 | 0.01625000025000001 0.04766666685 | 0.0164583331 0.0159895835 0.04807291664999996] xmatrix=[0.10918749985 | 0.05226041644999998 0.11229166685 | 0.04412500014999996 0.04009374984999995 0.1109479167499999]
new Reactor.kr_16_18 phases=3 bus1=60.1.2.3 bus2=64.1.2.3 rmatrix=[0.2232380773034406 | 0.07629634490933249 0.2249994419908399 | 0.07227456988265231 0.07629634490933264 0.2232380773034405] xmatrix=[0.1103935313639866 | 0.04073157601326693 0.1051241206866436 | 0.03166055334808679 0.040731576013267 0.1103935313639867]
new Reactor.kr_16_27 phases=3 bus1=60.1.2.3 bus2=160.1.2.3 rmatrix=[1e-06 | 0 1e-06 | 0 0 1e-06] xmatrix=[-0 | -0 -0 | -0 -0 -0]
new Reactor.kr_17_28 phases=3 bus1=61.1.2.3 bus2=61s.1.2.3 rmatrix=[1e-06 | 0 1e-06 | 0 0 1e-06] xmatrix=[-0 | -0 -0 | -0 -0 -0]
new Reactor.kr_19_20 phases=3 bus1=67.1.2.3 bus2=97.1.2.3 rmatrix=[0.02185132574999998 | 0.007267992499999998 0.02166666675 | 0.007481060499999996 0.007386363749999991 0.02209280300000001] xmatrix=[0.05043087124999998 | 0.01822443174999998 0.05104166674999999 | 0.02005681824999998 0.02375473474999997 0.04963068174999999]
new Reactor.kr_19_21 phases=3 bus1=67.1.2.3 bus2=80.1.2.3 rmatrix=[0.125836722921965 | 0.04203596615597829 0.1262058931936382 | 0.04289217377910469 0.04307973325263744 0.1279542413185578] xmatrix=[0.2947008401798668 | 0.1055814642947222 0.293479206583067 | 0.1306111471188228 0.123210194734214 0.2876765160496997]
new Reactor.kr_19_26 phases=3 bus1=67.1.2.3 bus2=160r.1.2.3 rmatrix=[0.03033333344999998 | 0.01017518949999999 0.03059185604999999 | 0.01034090924999999 0.01047348470000001 0.03092992419999999] xmatrix=[0.07145833344999998 | 0.02551420444999994 0.07060321974999993 | 0.03325662864999997 0.02807954555 0.06948295445]
new Reactor.kr_20_22 phases=3 bus1=97.1.2.3 bus2=197.1.2.3 rmatrix=[1e-06 | 0 1e-06 | 0 0 1e-06] xmatrix=[-0 | -0 -0 | -0 -0 -0]
new Reactor.kr_22_23 phases=1 bus1=197.1 bus2=109.1 rmatrix=[0.1875785579359051] xmatrix=[0.2863086972862418]
